simulator lang=spectre
include "nmos.scs"
include "pmos.scs"
